OpenDSS/dn106b.dss
Clear
Set DefaultBaseFrequency=60

new object=circuit.dn25b
~ basekv=13.8 pu=1 phases=3 bus1=B136 Angle=0 MVAsc3=20000 MVASC1=21000

new linecode.LC136_1 nphases = 3
~ r1=1e-4 r0=1e-4 x1=0.000 x0=0.000 c1=0.000 c0=0.000
new linecode.LC1_2 nphases = 3
~ rmatrix = (0.38448 | 0.054 0.38448 | 0.054 0.054 0.38448)
~ xmatrix = (0.86481 | 0.4302 0.86481 | 0.405 0.4824 0.86481)
new linecode.LC2_3 nphases = 3
~ rmatrix = (0.0542 | 0.003 0.0542 | 0.003 0.003 0.0542)
~ xmatrix = (0.0499 | 0.0239 0.0499 | 0.0225 0.0268 0.0499)
new linecode.LC3_4 nphases = 3
~ rmatrix = (0.04272 | 0.006 0.04272 | 0.006 0.006 0.04272)
~ xmatrix = (0.09609 | 0.0478 0.09609 | 0.045 0.0536 0.09609)
new linecode.LC3_5 nphases = 3
~ rmatrix = (0.017088 | 0.0024 0.017088 | 0.0024 0.0024 0.017088)
~ xmatrix = (0.038436 | 0.01912 0.038436 | 0.018 0.02144 0.038436)
new linecode.LC5_6 nphases = 3
~ rmatrix = (0.08544 | 0.012 0.08544 | 0.012 0.012 0.08544)
~ xmatrix = (0.19218 | 0.0956 0.19218 | 0.09 0.1072 0.19218)
new linecode.LC6_7 nphases = 3
~ rmatrix = (0.08544 | 0.012 0.08544 | 0.012 0.012 0.08544)
~ xmatrix = (0.19218 | 0.0956 0.19218 | 0.09 0.1072 0.19218)
new linecode.LC7_8 nphases = 3
~ rmatrix = (0.08544 | 0.012 0.08544 | 0.012 0.012 0.08544)
~ xmatrix = (0.19218 | 0.0956 0.19218 | 0.09 0.1072 0.19218)
new linecode.LC8_9 nphases = 3
~ rmatrix = (0.004272 | 0.0006 0.004272 | 0.0006 0.0006 0.004272)
~ xmatrix = (0.009609 | 0.00478 0.009609 | 0.0045 0.00536 0.009609)
new linecode.LC9_10 nphases = 3
~ rmatrix = (0.02136 | 0.003 0.02136 | 0.003 0.003 0.02136)
~ xmatrix = (0.048045 | 0.0239 0.048045 | 0.0225 0.0268 0.048045)
new linecode.LC10_11 nphases = 3
~ rmatrix = (0.1644 | 0.006 0.1644 | 0.006 0.006 0.1644)
~ xmatrix = (0.1006 | 0.0478 0.1006 | 0.045 0.0536 0.1006)
new linecode.LC11_12 nphases = 3
~ rmatrix = (0.09864 | 0.0036 0.09864 | 0.0036 0.0036 0.09864)
~ xmatrix = (0.06036 | 0.02868 0.06036 | 0.027 0.03216 0.06036)
new linecode.LC12_13 nphases = 3
~ rmatrix = (0.04932 | 0.0018 0.04932 | 0.0018 0.0018 0.04932)
~ xmatrix = (0.03018 | 0.01434 0.03018 | 0.0135 0.01608 0.03018)
new linecode.LC13_14 nphases = 3
~ rmatrix = (0.26304 | 0.0096 0.26304 | 0.0096 0.0096 0.26304)
~ xmatrix = (0.16096 | 0.07648 0.16096 | 0.072 0.08576 0.16096)
new linecode.LC14_15 nphases = 3
~ rmatrix = (0.04932 | 0.0018 0.04932 | 0.0018 0.0018 0.04932)
~ xmatrix = (0.03018 | 0.01434 0.03018 | 0.0135 0.01608 0.03018)
new linecode.LC12_16 nphases = 3
~ rmatrix = (0.01644 | 0.0006 0.01644 | 0.0006 0.0006 0.01644)
~ xmatrix = (0.01006 | 0.00478 0.01006 | 0.0045 0.00536 0.01006)
new linecode.LC16_17 nphases = 3
~ rmatrix = (0.03288 | 0.0012 0.03288 | 0.0012 0.0012 0.03288)
~ xmatrix = (0.02012 | 0.00956 0.02012 | 0.009 0.01072 0.02012)
new linecode.LC17_18 nphases = 3
~ rmatrix = (0.06576 | 0.0024 0.06576 | 0.0024 0.0024 0.06576)
~ xmatrix = (0.04024 | 0.01912 0.04024 | 0.018 0.02144 0.04024)
new linecode.LC18_19 nphases = 3
~ rmatrix = (0.04336 | 0.0024 0.04336 | 0.0024 0.0024 0.04336)
~ xmatrix = (0.03992 | 0.01912 0.03992 | 0.018 0.02144 0.03992)
new linecode.LC19_20 nphases = 3
~ rmatrix = (0.0542 | 0.003 0.0542 | 0.003 0.003 0.0542)
~ xmatrix = (0.0499 | 0.0239 0.0499 | 0.0225 0.0268 0.0499)
new linecode.LC20_21 nphases = 3
~ rmatrix = (0.1626 | 0.009 0.1626 | 0.009 0.009 0.1626)
~ xmatrix = (0.1497 | 0.0717 0.1497 | 0.0675 0.0804 0.1497)
new linecode.LC19_22 nphases = 3
~ rmatrix = (0.012816 | 0.0018 0.012816 | 0.0018 0.0018 0.012816)
~ xmatrix = (0.028827 | 0.01434 0.028827 | 0.0135 0.01608 0.028827)
new linecode.LC11_23 nphases = 3
~ rmatrix = (0.029904 | 0.0042 0.029904 | 0.0042 0.0042 0.029904)
~ xmatrix = (0.067263 | 0.03346 0.067263 | 0.0315 0.03752 0.067263)
new linecode.LC23_24 nphases = 3
~ rmatrix = (0.0822 | 0.003 0.0822 | 0.003 0.003 0.0822)
~ xmatrix = (0.0503 | 0.0239 0.0503 | 0.0225 0.0268 0.0503)
new linecode.LC24_25 nphases = 3
~ rmatrix = (0.03288 | 0.0012 0.03288 | 0.0012 0.0012 0.03288)
~ xmatrix = (0.02012 | 0.00956 0.02012 | 0.009 0.01072 0.02012)
new linecode.LC25_26 nphases = 3
~ rmatrix = (0.04932 | 0.0018 0.04932 | 0.0018 0.0018 0.04932)
~ xmatrix = (0.03018 | 0.01434 0.03018 | 0.0135 0.01608 0.03018)
new linecode.LC26_27 nphases = 3
~ rmatrix = (0.06504 | 0.0036 0.06504 | 0.0036 0.0036 0.06504)
~ xmatrix = (0.05988 | 0.02868 0.05988 | 0.027 0.03216 0.05988)
new linecode.LC27_28 nphases = 3
~ rmatrix = (0.04336 | 0.0024 0.04336 | 0.0024 0.0024 0.04336)
~ xmatrix = (0.03992 | 0.01912 0.03992 | 0.018 0.02144 0.03992)
new linecode.LC28_29 nphases = 3
~ rmatrix = (0.02168 | 0.0012 0.02168 | 0.0012 0.0012 0.02168)
~ xmatrix = (0.01996 | 0.00956 0.01996 | 0.009 0.01072 0.01996)
new linecode.LC29_30 nphases = 3
~ rmatrix = (0.13008 | 0.0072 0.13008 | 0.0072 0.0072 0.13008)
~ xmatrix = (0.11976 | 0.05736 0.11976 | 0.054 0.06432 0.11976)
new linecode.LC30_31 nphases = 3
~ rmatrix = (0.02168 | 0.0012 0.02168 | 0.0012 0.0012 0.02168)
~ xmatrix = (0.01996 | 0.00956 0.01996 | 0.009 0.01072 0.01996)
new linecode.LC29_32 nphases = 3
~ rmatrix = (0.03288 | 0.0012 0.03288 | 0.0012 0.0012 0.03288)
~ xmatrix = (0.02012 | 0.00956 0.02012 | 0.009 0.01072 0.02012)
new linecode.LC27_33 nphases = 3
~ rmatrix = (0.00822 | 0.0003 0.00822 | 0.0003 0.0003 0.00822)
~ xmatrix = (0.00503 | 0.00239 0.00503 | 0.00225 0.00268 0.00503)
new linecode.LC33_34 nphases = 3
~ rmatrix = (0.0411 | 0.0015 0.0411 | 0.0015 0.0015 0.0411)
~ xmatrix = (0.02515 | 0.01195 0.02515 | 0.01125 0.0134 0.02515)
new linecode.LC34_35 nphases = 3
~ rmatrix = (0.004272 | 0.0006 0.004272 | 0.0006 0.0006 0.004272)
~ xmatrix = (0.009609 | 0.00478 0.009609 | 0.0045 0.00536 0.009609)
new linecode.LC24_36 nphases = 3
~ rmatrix = (0.029904 | 0.0042 0.029904 | 0.0042 0.0042 0.029904)
~ xmatrix = (0.067263 | 0.03346 0.067263 | 0.0315 0.03752 0.067263)
new linecode.LC36_37 nphases = 3
~ rmatrix = (0.004272 | 0.0006 0.004272 | 0.0006 0.0006 0.004272)
~ xmatrix = (0.009609 | 0.00478 0.009609 | 0.0045 0.00536 0.009609)
new linecode.LC37_38 nphases = 3
~ rmatrix = (0.004272 | 0.0006 0.004272 | 0.0006 0.0006 0.004272)
~ xmatrix = (0.009609 | 0.00478 0.009609 | 0.0045 0.00536 0.009609)
new linecode.LC38_39 nphases = 3
~ rmatrix = (0.029904 | 0.0042 0.029904 | 0.0042 0.0042 0.029904)
~ xmatrix = (0.067263 | 0.03346 0.067263 | 0.0315 0.03752 0.067263)
new linecode.LC39_40 nphases = 3
~ rmatrix = (0.04272 | 0.006 0.04272 | 0.006 0.006 0.04272)
~ xmatrix = (0.09609 | 0.0478 0.09609 | 0.045 0.0536 0.09609)
new linecode.LC39_41 nphases = 3
~ rmatrix = (0.09864 | 0.0036 0.09864 | 0.0036 0.0036 0.09864)
~ xmatrix = (0.06036 | 0.02868 0.06036 | 0.027 0.03216 0.06036)
new linecode.LC41_42 nphases = 3
~ rmatrix = (0.0822 | 0.003 0.0822 | 0.003 0.003 0.0822)
~ xmatrix = (0.0503 | 0.0239 0.0503 | 0.0225 0.0268 0.0503)
new linecode.LC41_43 nphases = 3
~ rmatrix = (0.01644 | 0.0006 0.01644 | 0.0006 0.0006 0.01644)
~ xmatrix = (0.01006 | 0.00478 0.01006 | 0.0045 0.00536 0.01006)
new linecode.LC43_44 nphases = 3
~ rmatrix = (0.012816 | 0.0018 0.012816 | 0.0018 0.0018 0.012816)
~ xmatrix = (0.028827 | 0.01434 0.028827 | 0.0135 0.01608 0.028827)
new linecode.LC41_45 nphases = 3
~ rmatrix = (0.017088 | 0.0024 0.017088 | 0.0024 0.0024 0.017088)
~ xmatrix = (0.038436 | 0.01912 0.038436 | 0.018 0.02144 0.038436)
new linecode.LC45_46 nphases = 3
~ rmatrix = (0.025632 | 0.0036 0.025632 | 0.0036 0.0036 0.025632)
~ xmatrix = (0.057654 | 0.02868 0.057654 | 0.027 0.03216 0.057654)
new linecode.LC39_47 nphases = 3
~ rmatrix = (0.008544 | 0.0012 0.008544 | 0.0012 0.0012 0.008544)
~ xmatrix = (0.019218 | 0.00956 0.019218 | 0.009 0.01072 0.019218)
new linecode.LC47_48 nphases = 3
~ rmatrix = (0.051264 | 0.0072 0.051264 | 0.0072 0.0072 0.051264)
~ xmatrix = (0.115308 | 0.05736 0.115308 | 0.054 0.06432 0.115308)
new linecode.LC48_49 nphases = 3
~ rmatrix = (0.02136 | 0.003 0.02136 | 0.003 0.003 0.02136)
~ xmatrix = (0.048045 | 0.0239 0.048045 | 0.0225 0.0268 0.048045)
new linecode.LC49_50 nphases = 3
~ rmatrix = (0.008544 | 0.0012 0.008544 | 0.0012 0.0012 0.008544)
~ xmatrix = (0.019218 | 0.00956 0.019218 | 0.009 0.01072 0.019218)
new linecode.LC50_51 nphases = 3
~ rmatrix = (0.072624 | 0.0102 0.072624 | 0.0102 0.0102 0.072624)
~ xmatrix = (0.163353 | 0.08126 0.163353 | 0.0765 0.09112 0.163353)
new linecode.LC51_52 nphases = 3
~ rmatrix = (0.04272 | 0.006 0.04272 | 0.006 0.006 0.04272)
~ xmatrix = (0.09609 | 0.0478 0.09609 | 0.045 0.0536 0.09609)
new linecode.LC49_53 nphases = 3
~ rmatrix = (0.09864 | 0.0036 0.09864 | 0.0036 0.0036 0.09864)
~ xmatrix = (0.06036 | 0.02868 0.06036 | 0.027 0.03216 0.06036)
new linecode.LC53_54 nphases = 3
~ rmatrix = (0.04932 | 0.0018 0.04932 | 0.0018 0.0018 0.04932)
~ xmatrix = (0.03018 | 0.01434 0.03018 | 0.0135 0.01608 0.03018)
new linecode.LC54_55 nphases = 3
~ rmatrix = (0.21372 | 0.0078 0.21372 | 0.0078 0.0078 0.21372)
~ xmatrix = (0.13078 | 0.06214 0.13078 | 0.0585 0.06968 0.13078)
new linecode.LC55_56 nphases = 3
~ rmatrix = (0.03288 | 0.0012 0.03288 | 0.0012 0.0012 0.03288)
~ xmatrix = (0.02012 | 0.00956 0.02012 | 0.009 0.01072 0.02012)
new linecode.LC53_57 nphases = 3
~ rmatrix = (0.13152 | 0.0048 0.13152 | 0.0048 0.0048 0.13152)
~ xmatrix = (0.08048 | 0.03824 0.08048 | 0.036 0.04288 0.08048)
new linecode.LC57_58 nphases = 3
~ rmatrix = (0.0542 | 0.003 0.0542 | 0.003 0.003 0.0542)
~ xmatrix = (0.0499 | 0.0239 0.0499 | 0.0225 0.0268 0.0499)
new linecode.LC58_59 nphases = 3
~ rmatrix = (0.06504 | 0.0036 0.06504 | 0.0036 0.0036 0.06504)
~ xmatrix = (0.05988 | 0.02868 0.05988 | 0.027 0.03216 0.05988)
new linecode.LC58_60 nphases = 3
~ rmatrix = (0.02168 | 0.0012 0.02168 | 0.0012 0.0012 0.02168)
~ xmatrix = (0.01996 | 0.00956 0.01996 | 0.009 0.01072 0.01996)
new linecode.LC60_61 nphases = 3
~ rmatrix = (0.017088 | 0.0024 0.017088 | 0.0024 0.0024 0.017088)
~ xmatrix = (0.038436 | 0.01912 0.038436 | 0.018 0.02144 0.038436)
new linecode.LC49_62 nphases = 3
~ rmatrix = (0.004272 | 0.0006 0.004272 | 0.0006 0.0006 0.004272)
~ xmatrix = (0.009609 | 0.00478 0.009609 | 0.0045 0.00536 0.009609)
new linecode.LC62_63 nphases = 3
~ rmatrix = (0.02136 | 0.003 0.02136 | 0.003 0.003 0.02136)
~ xmatrix = (0.048045 | 0.0239 0.048045 | 0.0225 0.0268 0.048045)
new linecode.LC63_64 nphases = 3
~ rmatrix = (0.022701 | 0.0018 0.022701 | 0.0018 0.0018 0.022701)
~ xmatrix = (0.030201 | 0.01434 0.030201 | 0.0135 0.01608 0.030201)
new linecode.LC64_65 nphases = 3
~ rmatrix = (0.015134 | 0.0012 0.015134 | 0.0012 0.0012 0.015134)
~ xmatrix = (0.020134 | 0.00956 0.020134 | 0.009 0.01072 0.020134)
new linecode.LC65_66 nphases = 3
~ rmatrix = (0.022701 | 0.0018 0.022701 | 0.0018 0.0018 0.022701)
~ xmatrix = (0.030201 | 0.01434 0.030201 | 0.0135 0.01608 0.030201)
new linecode.LC66_67 nphases = 3
~ rmatrix = (0.015134 | 0.0012 0.015134 | 0.0012 0.0012 0.015134)
~ xmatrix = (0.020134 | 0.00956 0.020134 | 0.009 0.01072 0.020134)
new linecode.LC67_68 nphases = 3
~ rmatrix = (0.04932 | 0.0018 0.04932 | 0.0018 0.0018 0.04932)
~ xmatrix = (0.03018 | 0.01434 0.03018 | 0.0135 0.01608 0.03018)
new linecode.LC68_69 nphases = 3
~ rmatrix = (0.03288 | 0.0012 0.03288 | 0.0012 0.0012 0.03288)
~ xmatrix = (0.02012 | 0.00956 0.02012 | 0.009 0.01072 0.02012)
new linecode.LC68_70 nphases = 3
~ rmatrix = (0.03288 | 0.0012 0.03288 | 0.0012 0.0012 0.03288)
~ xmatrix = (0.02012 | 0.00956 0.02012 | 0.009 0.01072 0.02012)
new linecode.LC70_71 nphases = 3
~ rmatrix = (0.037835 | 0.003 0.037835 | 0.003 0.003 0.037835)
~ xmatrix = (0.050335 | 0.0239 0.050335 | 0.0225 0.0268 0.050335)
new linecode.LC68_72 nphases = 3
~ rmatrix = (0.030268 | 0.0024 0.030268 | 0.0024 0.0024 0.030268)
~ xmatrix = (0.040268 | 0.01912 0.040268 | 0.018 0.02144 0.040268)
new linecode.LC72_73 nphases = 3
~ rmatrix = (0.030268 | 0.0024 0.030268 | 0.0024 0.0024 0.030268)
~ xmatrix = (0.040268 | 0.01912 0.040268 | 0.018 0.02144 0.040268)
new linecode.LC73_74 nphases = 3
~ rmatrix = (0.015134 | 0.0012 0.015134 | 0.0012 0.0012 0.015134)
~ xmatrix = (0.020134 | 0.00956 0.020134 | 0.009 0.01072 0.020134)
new linecode.LC74_75 nphases = 3
~ rmatrix = (0.083237 | 0.0066 0.083237 | 0.0066 0.0066 0.083237)
~ xmatrix = (0.110737 | 0.05258 0.110737 | 0.0495 0.05896 0.110737)
new linecode.LC75_76 nphases = 3
~ rmatrix = (0.008544 | 0.0012 0.008544 | 0.0012 0.0012 0.008544)
~ xmatrix = (0.019218 | 0.00956 0.019218 | 0.009 0.01072 0.019218)
new linecode.LC64_77 nphases = 3
~ rmatrix = (0.012816 | 0.0018 0.012816 | 0.0018 0.0018 0.012816)
~ xmatrix = (0.028827 | 0.01434 0.028827 | 0.0135 0.01608 0.028827)
new linecode.LC77_78 nphases = 3
~ rmatrix = (0.02136 | 0.003 0.02136 | 0.003 0.003 0.02136)
~ xmatrix = (0.048045 | 0.0239 0.048045 | 0.0225 0.0268 0.048045)
new linecode.LC78_79 nphases = 3
~ rmatrix = (0.029904 | 0.0042 0.029904 | 0.0042 0.0042 0.029904)
~ xmatrix = (0.067263 | 0.03346 0.067263 | 0.0315 0.03752 0.067263)
new linecode.LC79_80 nphases = 3
~ rmatrix = (0.029904 | 0.0042 0.029904 | 0.0042 0.0042 0.029904)
~ xmatrix = (0.067263 | 0.03346 0.067263 | 0.0315 0.03752 0.067263)
new linecode.LC80_81 nphases = 3
~ rmatrix = (0.012816 | 0.0018 0.012816 | 0.0018 0.0018 0.012816)
~ xmatrix = (0.028827 | 0.01434 0.028827 | 0.0135 0.01608 0.028827)
new linecode.LC81_82 nphases = 3
~ rmatrix = (0.012816 | 0.0018 0.012816 | 0.0018 0.0018 0.012816)
~ xmatrix = (0.028827 | 0.01434 0.028827 | 0.0135 0.01608 0.028827)
new linecode.LC82_83 nphases = 3
~ rmatrix = (0.0822 | 0.003 0.0822 | 0.003 0.003 0.0822)
~ xmatrix = (0.0503 | 0.0239 0.0503 | 0.0225 0.0268 0.0503)
new linecode.LC83_84 nphases = 3
~ rmatrix = (0.02136 | 0.003 0.02136 | 0.003 0.003 0.02136)
~ xmatrix = (0.048045 | 0.0239 0.048045 | 0.0225 0.0268 0.048045)
new linecode.LC83_85 nphases = 3
~ rmatrix = (0.012816 | 0.0018 0.012816 | 0.0018 0.0018 0.012816)
~ xmatrix = (0.028827 | 0.01434 0.028827 | 0.0135 0.01608 0.028827)
new linecode.LC85_86 nphases = 3
~ rmatrix = (0.012816 | 0.0018 0.012816 | 0.0018 0.0018 0.012816)
~ xmatrix = (0.028827 | 0.01434 0.028827 | 0.0135 0.01608 0.028827)
new linecode.LC86_129 nphases = 3
~ rmatrix = (0.008544 | 0.0012 0.008544 | 0.0012 0.0012 0.008544)
~ xmatrix = (0.019218 | 0.00956 0.019218 | 0.009 0.01072 0.019218)
new linecode.LC129_87 nphases = 3
~ rmatrix = (0.14092 | 0.0078 0.14092 | 0.0078 0.0078 0.14092)
~ xmatrix = (0.12974 | 0.06214 0.12974 | 0.0585 0.06968 0.12974)
new linecode.LC87_88 nphases = 3
~ rmatrix = (0.002136 | 0.0003 0.002136 | 0.0003 0.0003 0.002136)
~ xmatrix = (0.004805 | 0.00239 0.004805 | 0.00225 0.00268 0.004805)
new linecode.LC79_89 nphases = 3
~ rmatrix = (0.02136 | 0.003 0.02136 | 0.003 0.003 0.02136)
~ xmatrix = (0.048045 | 0.0239 0.048045 | 0.0225 0.0268 0.048045)
new linecode.LC79_90 nphases = 3
~ rmatrix = (0.076896 | 0.0108 0.076896 | 0.0108 0.0108 0.076896)
~ xmatrix = (0.172962 | 0.08604 0.172962 | 0.081 0.09648 0.172962)
new linecode.LC90_91 nphases = 3
~ rmatrix = (0.008544 | 0.0012 0.008544 | 0.0012 0.0012 0.008544)
~ xmatrix = (0.019218 | 0.00956 0.019218 | 0.009 0.01072 0.019218)
new linecode.LC91_92 nphases = 3
~ rmatrix = (0.03252 | 0.0018 0.03252 | 0.0018 0.0018 0.03252)
~ xmatrix = (0.02994 | 0.01434 0.02994 | 0.0135 0.01608 0.02994)
new linecode.LC92_93 nphases = 3
~ rmatrix = (0.07588 | 0.0042 0.07588 | 0.0042 0.0042 0.07588)
~ xmatrix = (0.06986 | 0.03346 0.06986 | 0.0315 0.03752 0.06986)
new linecode.LC93_94 nphases = 3
~ rmatrix = (0.04272 | 0.006 0.04272 | 0.006 0.006 0.04272)
~ xmatrix = (0.09609 | 0.0478 0.09609 | 0.045 0.0536 0.09609)
new linecode.LC93_95 nphases = 3
~ rmatrix = (0.04336 | 0.0024 0.04336 | 0.0024 0.0024 0.04336)
~ xmatrix = (0.03992 | 0.01912 0.03992 | 0.018 0.02144 0.03992)
new linecode.LC93_96 nphases = 3
~ rmatrix = (0.0542 | 0.003 0.0542 | 0.003 0.003 0.0542)
~ xmatrix = (0.0499 | 0.0239 0.0499 | 0.0225 0.0268 0.0499)
new linecode.LC96_97 nphases = 3
~ rmatrix = (0.06504 | 0.0036 0.06504 | 0.0036 0.0036 0.06504)
~ xmatrix = (0.05988 | 0.02868 0.05988 | 0.027 0.03216 0.05988)
new linecode.LC96_98 nphases = 3
~ rmatrix = (0.18084 | 0.0066 0.18084 | 0.0066 0.0066 0.18084)
~ xmatrix = (0.11066 | 0.05258 0.11066 | 0.0495 0.05896 0.11066)
new linecode.LC98_99 nphases = 3
~ rmatrix = (0.04336 | 0.0024 0.04336 | 0.0024 0.0024 0.04336)
~ xmatrix = (0.03992 | 0.01912 0.03992 | 0.018 0.02144 0.03992)
new linecode.LC99_100 nphases = 3
~ rmatrix = (0.11924 | 0.0066 0.11924 | 0.0066 0.0066 0.11924)
~ xmatrix = (0.10978 | 0.05258 0.10978 | 0.0495 0.05896 0.10978)
new linecode.LC99_101 nphases = 3
~ rmatrix = (0.025632 | 0.0036 0.025632 | 0.0036 0.0036 0.025632)
~ xmatrix = (0.057654 | 0.02868 0.057654 | 0.027 0.03216 0.057654)
new linecode.LC101_102 nphases = 3
~ rmatrix = (0.017088 | 0.0024 0.017088 | 0.0024 0.0024 0.017088)
~ xmatrix = (0.038436 | 0.01912 0.038436 | 0.018 0.02144 0.038436)
new linecode.LC96_103 nphases = 3
~ rmatrix = (0.022701 | 0.0018 0.022701 | 0.0018 0.0018 0.022701)
~ xmatrix = (0.030201 | 0.01434 0.030201 | 0.0135 0.01608 0.030201)
new linecode.LC103_104 nphases = 3
~ rmatrix = (0.113505 | 0.009 0.113505 | 0.009 0.009 0.113505)
~ xmatrix = (0.151005 | 0.0717 0.151005 | 0.0675 0.0804 0.151005)

new line.L136_1 B136 B1 LC136_1 1
new line.L1_2 B1 B2 LC1_2 1
new line.L2_3 B2 B3 LC2_3 1
new line.L3_4 B3 B4 LC3_4 1
new line.L3_5 B3 B5 LC3_5 1
new line.L5_6 B5 B6 LC5_6 1
new line.L6_7 B6 B7 LC6_7 1
new line.L7_8 B7 B8 LC7_8 1
new line.L8_9 B8 B9 LC8_9 1
new line.L9_10 B9 B10 LC9_10 1
new line.L10_11 B10 B11 LC10_11 1
new line.L11_12 B11 B12 LC11_12 1
new line.L12_13 B12 B13 LC12_13 1
new line.L13_14 B13 B14 LC13_14 1
new line.L14_15 B14 B15 LC14_15 1
new line.L12_16 B12 B16 LC12_16 1
new line.L16_17 B16 B17 LC16_17 1
new line.L17_18 B17 B18 LC17_18 1
new line.L18_19 B18 B19 LC18_19 1
new line.L19_20 B19 B20 LC19_20 1
new line.L20_21 B20 B21 LC20_21 1
new line.L19_22 B19 B22 LC19_22 1
new line.L11_23 B11 B23 LC11_23 1
new line.L23_24 B23 B24 LC23_24 1
new line.L24_25 B24 B25 LC24_25 1
new line.L25_26 B25 B26 LC25_26 1
new line.L26_27 B26 B27 LC26_27 1
new line.L27_28 B27 B28 LC27_28 1
new line.L28_29 B28 B29 LC28_29 1
new line.L29_30 B29 B30 LC29_30 1
new line.L30_31 B30 B31 LC30_31 1
new line.L29_32 B29 B32 LC29_32 1
new line.L27_33 B27 B33 LC27_33 1
new line.L33_34 B33 B34 LC33_34 1
new line.L34_35 B34 B35 LC34_35 1
new line.L24_36 B24 B36 LC24_36 1
new line.L36_37 B36 B37 LC36_37 1
new line.L37_38 B37 B38 LC37_38 1
new line.L38_39 B38 B39 LC38_39 1
new line.L39_40 B39 B40 LC39_40 1
new line.L39_41 B39 B41 LC39_41 1
new line.L41_42 B41 B42 LC41_42 1
new line.L41_43 B41 B43 LC41_43 1
new line.L43_44 B43 B44 LC43_44 1
new line.L41_45 B41 B45 LC41_45 1
new line.L45_46 B45 B46 LC45_46 1
new line.L39_47 B39 B47 LC39_47 1
new line.L47_48 B47 B48 LC47_48 1
new line.L48_49 B48 B49 LC48_49 1
new line.L49_50 B49 B50 LC49_50 1
new line.L50_51 B50 B51 LC50_51 1
new line.L51_52 B51 B52 LC51_52 1
new line.L49_53 B49 B53 LC49_53 1
new line.L53_54 B53 B54 LC53_54 1
new line.L54_55 B54 B55 LC54_55 1
new line.L55_56 B55 B56 LC55_56 1
new line.L53_57 B53 B57 LC53_57 1
new line.L57_58 B57 B58 LC57_58 1
new line.L58_59 B58 B59 LC58_59 1
new line.L58_60 B58 B60 LC58_60 1
new line.L60_61 B60 B61 LC60_61 1
new line.L49_62 B49 B62 LC49_62 1
new line.L62_63 B62 B63 LC62_63 1
new line.L63_64 B63 B64 LC63_64 1
new line.L64_65 B64 B65 LC64_65 1
new line.L65_66 B65 B66 LC65_66 1
new line.L66_67 B66 B67 LC66_67 1
new line.L67_68 B67 B68 LC67_68 1
new line.L68_69 B68 B69 LC68_69 1
new line.L68_70 B68 B70 LC68_70 1
new line.L70_71 B70 B71 LC70_71 1
new line.L68_72 B68 B72 LC68_72 1
new line.L72_73 B72 B73 LC72_73 1
new line.L73_74 B73 B74 LC73_74 1
new line.L74_75 B74 B75 LC74_75 1
new line.L75_76 B75 B76 LC75_76 1
new line.L64_77 B64 B77 LC64_77 1
new line.L77_78 B77 B78 LC77_78 1
new line.L78_79 B78 B79 LC78_79 1
new line.L79_80 B79 B80 LC79_80 1
new line.L80_81 B80 B81 LC80_81 1
new line.L81_82 B81 B82 LC81_82 1
new line.L82_83 B82 B83 LC82_83 1
new line.L83_84 B83 B84 LC83_84 1
new line.L83_85 B83 B85 LC83_85 1
new line.L85_86 B85 B86 LC85_86 1
new line.L86_129 B86 B129 LC86_129 1
new line.L129_87 B129 B87 LC129_87 1
new line.L87_88 B87 B88 LC87_88 1
new line.L79_89 B79 B89 LC79_89 1
new line.L79_90 B79 B90 LC79_90 1
new line.L90_91 B90 B91 LC90_91 1
new line.L91_92 B91 B92 LC91_92 1
new line.L92_93 B92 B93 LC92_93 1
new line.L93_94 B93 B94 LC93_94 1
new line.L93_95 B93 B95 LC93_95 1
new line.L93_96 B93 B96 LC93_96 1
new line.L96_97 B96 B97 LC96_97 1
new line.L96_98 B96 B98 LC96_98 1
new line.L98_99 B98 B99 LC98_99 1
new line.L99_100 B99 B100 LC99_100 1
new line.L99_101 B99 B101 LC99_101 1
new line.L101_102 B101 B102 LC101_102 1
new line.L96_103 B96 B103 LC96_103 1
new line.L103_104 B103 B104 LC103_104 1

new load.D1 bus1 = B1 phases = 3 kv = 13.8 kw = 0 kvar = 0 model = 1
new load.D2 bus1 = B2 phases = 3 kv = 13.8 kw = 0 kvar = 0 model = 1
new load.D3 bus1 = B3 phases = 3 kv = 13.8 kw = 0 kvar = 0 model = 1
new load.D4 bus1 = B4 phases = 3 kv = 13.8 kw = 41.4 kvar = 17.6364 model = 1
new load.D5 bus1 = B5 phases = 3 kv = 13.8 kw = 0 kvar = 0 model = 1
new load.D6 bus1 = B6 phases = 3 kv = 13.8 kw = 69 kvar = 29.394 model = 1
new load.D7 bus1 = B7 phases = 3 kv = 13.8 kw = 69 kvar = 29.394 model = 1
new load.D8 bus1 = B8 phases = 3 kv = 13.8 kw = 103.5 kvar = 44.0907 model = 1
new load.D9 bus1 = B9 phases = 3 kv = 13.8 kw = 69 kvar = 29.394 model = 1
new load.D10 bus1 = B10 phases = 3 kv = 13.8 kw = 69 kvar = 29.394 model = 1
new load.D11 bus1 = B11 phases = 3 kv = 13.8 kw = 0 kvar = 0 model = 1
new load.D12 bus1 = B12 phases = 3 kv = 13.8 kw = 0 kvar = 0 model = 1
new load.D13 bus1 = B13 phases = 3 kv = 13.8 kw = 7.9125 kvar = 3.3705 model = 1
new load.D14 bus1 = B14 phases = 3 kv = 13.8 kw = 69 kvar = 29.394 model = 1
new load.D15 bus1 = B15 phases = 3 kv = 13.8 kw = 69 kvar = 29.394 model = 1
new load.D16 bus1 = B16 phases = 3 kv = 13.8 kw = 103.5 kvar = 44.0907 model = 1
new load.D17 bus1 = B17 phases = 3 kv = 13.8 kw = 41.4 kvar = 17.6364 model = 1
new load.D18 bus1 = B18 phases = 3 kv = 13.8 kw = 103.5 kvar = 44.0907 model = 1
new load.D19 bus1 = B19 phases = 3 kv = 13.8 kw = 0 kvar = 0 model = 1
new load.D20 bus1 = B20 phases = 3 kv = 13.8 kw = 69 kvar = 29.394 model = 1
new load.D21 bus1 = B21 phases = 3 kv = 13.8 kw = 103.5 kvar = 44.0907 model = 1
new load.D22 bus1 = B22 phases = 3 kv = 13.8 kw = 103.5 kvar = 44.0907 model = 1
new load.D23 bus1 = B23 phases = 3 kv = 13.8 kw = 103.5 kvar = 44.0907 model = 1
new load.D24 bus1 = B24 phases = 3 kv = 13.8 kw = 0 kvar = 0 model = 1
new load.D25 bus1 = B25 phases = 3 kv = 13.8 kw = 2.76 kvar = 1.1757 model = 1
new load.D26 bus1 = B26 phases = 3 kv = 13.8 kw = 41.4 kvar = 17.6364 model = 1
new load.D27 bus1 = B27 phases = 3 kv = 13.8 kw = 0 kvar = 0 model = 1
new load.D28 bus1 = B28 phases = 3 kv = 13.8 kw = 103.5 kvar = 44.0907 model = 1
new load.D29 bus1 = B29 phases = 3 kv = 13.8 kw = 0 kvar = 0 model = 1
new load.D30 bus1 = B30 phases = 3 kv = 13.8 kw = 69 kvar = 29.394 model = 1
new load.D31 bus1 = B31 phases = 3 kv = 13.8 kw = 103.5 kvar = 44.0907 model = 1
new load.D32 bus1 = B32 phases = 3 kv = 13.8 kw = 103.5 kvar = 44.0907 model = 1
new load.D33 bus1 = B33 phases = 3 kv = 13.8 kw = 103.5 kvar = 44.0907 model = 1
new load.D34 bus1 = B34 phases = 3 kv = 13.8 kw = 103.5 kvar = 44.0907 model = 1
new load.D35 bus1 = B35 phases = 3 kv = 13.8 kw = 103.5 kvar = 44.0907 model = 1
new load.D36 bus1 = B36 phases = 3 kv = 13.8 kw = 0 kvar = 0 model = 1
new load.D37 bus1 = B37 phases = 3 kv = 13.8 kw = 11.4075 kvar = 4.8597 model = 1
new load.D38 bus1 = B38 phases = 3 kv = 13.8 kw = 103.5 kvar = 44.0907 model = 1
new load.D39 bus1 = B39 phases = 3 kv = 13.8 kw = 0 kvar = 0 model = 1
new load.D40 bus1 = B40 phases = 3 kv = 13.8 kw = 2.76 kvar = 1.1757 model = 1
new load.D41 bus1 = B41 phases = 3 kv = 13.8 kw = 0 kvar = 0 model = 1
new load.D42 bus1 = B42 phases = 3 kv = 13.8 kw = 69 kvar = 29.394 model = 1
new load.D43 bus1 = B43 phases = 3 kv = 13.8 kw = 69 kvar = 29.394 model = 1
new load.D44 bus1 = B44 phases = 3 kv = 13.8 kw = 69 kvar = 29.394 model = 1
new load.D45 bus1 = B45 phases = 3 kv = 13.8 kw = 103.5 kvar = 44.0907 model = 1
new load.D46 bus1 = B46 phases = 3 kv = 13.8 kw = 41.4 kvar = 17.6364 model = 1
new load.D47 bus1 = B47 phases = 3 kv = 13.8 kw = 0.9195 kvar = 0.3918 model = 1
new load.D48 bus1 = B48 phases = 3 kv = 13.8 kw = 103.5 kvar = 44.0907 model = 1
new load.D49 bus1 = B49 phases = 3 kv = 13.8 kw = 0 kvar = 0 model = 1
new load.D50 bus1 = B50 phases = 3 kv = 13.8 kw = 103.5 kvar = 44.0907 model = 1
new load.D51 bus1 = B51 phases = 3 kv = 13.8 kw = 69 kvar = 29.394 model = 1
new load.D52 bus1 = B52 phases = 3 kv = 13.8 kw = 103.5 kvar = 44.0907 model = 1
new load.D53 bus1 = B53 phases = 3 kv = 13.8 kw = 0 kvar = 0 model = 1
new load.D54 bus1 = B54 phases = 3 kv = 13.8 kw = 1.104 kvar = 0.4704 model = 1
new load.D55 bus1 = B55 phases = 3 kv = 13.8 kw = 103.5 kvar = 44.0907 model = 1
new load.D56 bus1 = B56 phases = 3 kv = 13.8 kw = 69 kvar = 29.394 model = 1
new load.D57 bus1 = B57 phases = 3 kv = 13.8 kw = 69 kvar = 29.394 model = 1
new load.D58 bus1 = B58 phases = 3 kv = 13.8 kw = 0 kvar = 0 model = 1
new load.D59 bus1 = B59 phases = 3 kv = 13.8 kw = 9.1995 kvar = 3.9192 model = 1
new load.D60 bus1 = B60 phases = 3 kv = 13.8 kw = 103.5 kvar = 44.0907 model = 1
new load.D61 bus1 = B61 phases = 3 kv = 13.8 kw = 3.4965 kvar = 1.4892 model = 1
new load.D62 bus1 = B62 phases = 3 kv = 13.8 kw = 2.76 kvar = 1.1757 model = 1
new load.D63 bus1 = B63 phases = 3 kv = 13.8 kw = 5.0595 kvar = 2.1555 model = 1
new load.D64 bus1 = B64 phases = 3 kv = 13.8 kw = 0 kvar = 0 model = 1
new load.D65 bus1 = B65 phases = 3 kv = 13.8 kw = 69 kvar = 29.394 model = 1
new load.D66 bus1 = B66 phases = 3 kv = 13.8 kw = 69 kvar = 29.394 model = 1
new load.D67 bus1 = B67 phases = 3 kv = 13.8 kw = 3.2205 kvar = 1.3716 model = 1
new load.D68 bus1 = B68 phases = 3 kv = 13.8 kw = 0 kvar = 0 model = 1
new load.D69 bus1 = B69 phases = 3 kv = 13.8 kw = 103.5 kvar = 44.0907 model = 1
new load.D70 bus1 = B70 phases = 3 kv = 13.8 kw = 6.4395 kvar = 2.7435 model = 1
new load.D71 bus1 = B71 phases = 3 kv = 13.8 kw = 103.5 kvar = 44.0907 model = 1
new load.D72 bus1 = B72 phases = 3 kv = 13.8 kw = 69 kvar = 29.394 model = 1
new load.D73 bus1 = B73 phases = 3 kv = 13.8 kw = 7.8195 kvar = 3.3312 model = 1
new load.D74 bus1 = B74 phases = 3 kv = 13.8 kw = 1.7475 kvar = 0.7446 model = 1
new load.D75 bus1 = B75 phases = 3 kv = 13.8 kw = 103.5 kvar = 44.0907 model = 1
new load.D76 bus1 = B76 phases = 3 kv = 13.8 kw = 103.5 kvar = 44.0907 model = 1
new load.D77 bus1 = B77 phases = 3 kv = 13.8 kw = 103.5 kvar = 44.0907 model = 1
new load.D78 bus1 = B78 phases = 3 kv = 13.8 kw = 5.4285 kvar = 2.3124 model = 1
new load.D79 bus1 = B79 phases = 3 kv = 13.8 kw = 0 kvar = 0 model = 1
new load.D80 bus1 = B80 phases = 3 kv = 13.8 kw = 69 kvar = 29.394 model = 1
new load.D81 bus1 = B81 phases = 3 kv = 13.8 kw = 103.5 kvar = 44.0907 model = 1
new load.D82 bus1 = B82 phases = 3 kv = 13.8 kw = 103.5 kvar = 44.0907 model = 1
new load.D83 bus1 = B83 phases = 3 kv = 13.8 kw = 0 kvar = 0 model = 1
new load.D84 bus1 = B84 phases = 3 kv = 13.8 kw = 69 kvar = 29.394 model = 1
new load.D85 bus1 = B85 phases = 3 kv = 13.8 kw = 69 kvar = 29.394 model = 1
new load.D86 bus1 = B86 phases = 3 kv = 13.8 kw = 103.5 kvar = 44.0907 model = 1
new load.D87 bus1 = B87 phases = 3 kv = 13.8 kw = 14.2605 kvar = 6.0747 model = 1
new load.D88 bus1 = B88 phases = 3 kv = 13.8 kw = 69 kvar = 29.394 model = 1
new load.D89 bus1 = B89 phases = 3 kv = 13.8 kw = 69 kvar = 29.394 model = 1
new load.D90 bus1 = B90 phases = 3 kv = 13.8 kw = 69 kvar = 29.394 model = 1
new load.D91 bus1 = B91 phases = 3 kv = 13.8 kw = 0 kvar = 0 model = 1
new load.D92 bus1 = B92 phases = 3 kv = 13.8 kw = 41.4 kvar = 17.6364 model = 1
new load.D93 bus1 = B93 phases = 3 kv = 13.8 kw = 0 kvar = 0 model = 1
new load.D94 bus1 = B94 phases = 3 kv = 13.8 kw = 103.5 kvar = 44.0907 model = 1
new load.D95 bus1 = B95 phases = 3 kv = 13.8 kw = 21.6195 kvar = 9.21 model = 1
new load.D96 bus1 = B96 phases = 3 kv = 13.8 kw = 0 kvar = 0 model = 1
new load.D97 bus1 = B97 phases = 3 kv = 13.8 kw = 69 kvar = 29.394 model = 1
new load.D98 bus1 = B98 phases = 3 kv = 13.8 kw = 5.52 kvar = 2.3514 model = 1
new load.D99 bus1 = B99 phases = 3 kv = 13.8 kw = 0 kvar = 0 model = 1
new load.D100 bus1 = B100 phases = 3 kv = 13.8 kw = 21.6195 kvar = 9.21 model = 1
new load.D101 bus1 = B101 phases = 3 kv = 13.8 kw = 69 kvar = 29.394 model = 1
new load.D102 bus1 = B102 phases = 3 kv = 13.8 kw = 103.5 kvar = 44.0907 model = 1
new load.D103 bus1 = B103 phases = 3 kv = 13.8 kw = 103.5 kvar = 44.0907 model = 1
new load.D104 bus1 = B104 phases = 3 kv = 13.8 kw = 0 kvar = 0 model = 1
new load.D129 bus1 = B129 phases = 3 kv = 13.8 kw = 0 kvar = 0 model = 1
new load.D136 bus1 = B136 phases = 3 kv = 13.8 kw = 103.5 kvar = 44.0907 model = 1

Set VoltageBases = [13.8]
CalcVoltageBases
